Version 4
SHEET 1 2780 868
WIRE 1680 0 1680 -64
WIRE 1008 112 1008 80
WIRE 1056 112 1056 0
WIRE 1056 112 1008 112
WIRE 1120 112 1120 32
WIRE 1120 112 1056 112
WIRE 1680 128 1680 80
WIRE 1168 144 1168 112
WIRE 1216 144 1168 144
WIRE 1472 144 1328 144
WIRE 1680 176 1680 128
WIRE 1216 192 1216 144
WIRE 1216 192 1168 192
WIRE 1232 192 1216 192
WIRE 1008 208 1008 112
WIRE 1168 208 1168 192
WIRE 1232 224 1232 192
WIRE 1248 224 1232 224
WIRE 1552 224 1520 224
WIRE 1024 256 1008 256
WIRE 1168 256 1152 256
WIRE 1248 256 1248 224
WIRE 1328 256 1328 144
WIRE 1328 256 1248 256
WIRE 1376 256 1328 256
WIRE 1552 256 1552 224
WIRE 1552 256 1520 256
WIRE 1616 256 1552 256
WIRE 1680 256 1616 256
WIRE 1728 256 1680 256
WIRE 960 288 928 288
WIRE 1232 288 1216 288
WIRE 1008 336 1008 304
WIRE 1040 336 1008 336
WIRE 1040 352 1040 336
WIRE 1072 352 1040 352
WIRE 1120 352 1072 352
WIRE 1168 352 1168 304
WIRE 1168 352 1120 352
WIRE 1552 352 1552 256
WIRE 1552 352 1488 352
WIRE 1616 352 1616 336
WIRE 1648 352 1616 352
WIRE 1728 352 1728 320
WIRE 1728 352 1648 352
WIRE 1648 368 1648 352
WIRE 1072 400 1072 352
WIRE 960 448 896 448
WIRE 1504 448 1488 448
WIRE 1520 448 1504 448
WIRE 1504 464 1504 448
WIRE 960 480 960 448
WIRE 1024 480 960 480
WIRE 960 528 960 480
WIRE 960 528 944 528
WIRE 960 576 960 528
WIRE 1440 576 1440 432
WIRE 1440 576 960 576
FLAG 800 -112 0
FLAG 896 544 0
FLAG 1072 496 0
FLAG 1504 464 0
FLAG 800 -192 Vdd
FLAG 1008 -16 Vdd
FLAG 1168 16 Vdd
FLAG 1520 128 Vdd
FLAG 1648 368 0
FLAG 1232 288 V+
FLAG 1168 -144 V+
FLAG 1168 -64 0
FLAG 1680 -64 0
FLAG 1680 128 Vfb
FLAG 1616 256 Vout
FLAG 928 288 Vfb
FLAG 1520 176 Vdd
FLAG 1072 448 0
FLAG 896 496 0
FLAG 1168 64 Vdd
FLAG 1008 32 Vdd
FLAG 1152 256 0
FLAG 1024 256 0
FLAG 1440 576 Vg0
FLAG 1216 144 Vg5
FLAG 1120 352 Vd0
FLAG 896 368 Vdd
FLAG 1488 400 0
DATAFLAG 1552 336 ""
DATAFLAG 1168 352 ""
DATAFLAG 1248 224 ""
DATAFLAG 1200 576 ""
SYMBOL voltage 800 -208 R0
WINDOW 123 0 0 Left 0
WINDOW 39 0 0 Left 0
SYMATTR InstName V1
SYMATTR Value 1.8
SYMBOL cmosn 944 448 M0
SYMATTR InstName M7
SYMATTR Value2 l={L} w={W} ad={W*Lm} as={W*Lm} pd={2*(W+Lm)} ps={2*(W+Lm)}
SYMBOL cmosp 1056 80 R180
SYMATTR InstName M3
SYMATTR Value2 l={Lt} w={Wr} ad={Wr*Lm} as={Wr*Lm} pd={2*(Wr+Lm)} ps={2*(Wr+Lm)}
SYMBOL current 896 368 R0
WINDOW 123 0 0 Left 0
WINDOW 39 0 0 Left 0
WINDOW 3 33 33 Left 2
SYMATTR Value 5µ
SYMATTR InstName I1
SYMBOL cap 1440 240 R90
WINDOW 0 0 32 VBottom 2
WINDOW 3 32 32 VTop 2
SYMATTR InstName C1
SYMATTR Value {Cc}
SYMBOL res 1600 240 R0
SYMATTR InstName R1
SYMATTR Value 5K
SYMBOL cap 1712 256 R0
SYMATTR InstName C2
SYMATTR Value 5p
SYMBOL cmosn 1024 400 R0
SYMATTR InstName M0
SYMATTR Value2 l={L} w={m*W} ad={m*W*Lm} as={m*W*Lm} pd={2*(10*W+Lm)} ps={2*(m*10*W+Lm)}
SYMBOL cmosn 1440 352 R0
SYMATTR InstName M6
SYMATTR Value2 l={L} w={k*m*W} ad={k*m*W*Lm} as={k*m*W*Lm} pd={2*(k*m*W+Lm)} ps={2*(k*m*W+Lm)}
SYMBOL cmosn 960 208 R0
SYMATTR InstName M1
SYMATTR Value2 l={Lid} w={Wid} ad={Wid*Lm} as={Wid*Lm} pd={2*(Wid+Lm)} ps={2*(Wid+Lm)}
SYMBOL cmosp 1120 112 M180
SYMATTR InstName M4
SYMATTR Value2 l={Lt} w={Wr} ad={Wr*Lm} as={Wr*Lm} pd={2*(Wr+Lm)} ps={2*(Wr+Lm)}
SYMBOL cmosp 1472 224 M180
SYMATTR InstName M5
SYMATTR Value2 l={Lt} w={2*k*Wr} ad={2*k*Wr*Lm} as={2*k*Wr*Lm} pd={2*(2*k*Wr+Lm)} ps={2*(2*k*Wr+Lm)}
SYMBOL res 1664 160 R0
SYMATTR InstName R2
SYMATTR Value 50k
SYMBOL voltage 1168 -160 R0
WINDOW 123 0 0 Left 0
WINDOW 39 0 0 Left 0
WINDOW 3 17 70 Left 2
SYMATTR Value PWL(1u 0.6 1.0001u 0.8)
SYMATTR InstName V4
SYMBOL cmosn 1216 208 M0
SYMATTR InstName M2
SYMATTR Value2 l={Lid} w={Wid} ad={Wid*Lm} as={Wid*Lm} pd={2*(Wid+Lm)} ps={2*(Wid+Lm)}
SYMBOL res 1664 -16 R0
SYMATTR InstName R3
SYMATTR Value 50k
SYMBOL res 1536 240 R90
WINDOW 0 -7 77 VBottom 2
WINDOW 3 32 56 VTop 2
SYMATTR InstName R4
SYMATTR Value 87.7
TEXT -144 -112 Left 2 !.include tsmc018.lib
TEXT 432 176 Left 2 !.param L=4u
TEXT 432 240 Left 2 !.param W=16u
TEXT -216 400 Left 2 !;ac oct 50 1K 1G
TEXT 424 296 Left 2 !.param k=8
TEXT -152 488 Left 2 !.tran 0 5u 0.1u
TEXT 440 352 Left 2 !.param m = 10
TEXT 360 456 Left 2 !.param Lm=0.36u
TEXT 440 96 Left 2 !.param Wr=20u
TEXT -120 160 Left 2 !.param Cc=1.1p
TEXT 544 136 Left 2 !.param Lid=0.18u
TEXT 544 200 Left 2 !.param Wid=40u
TEXT 440 32 Left 2 !.param Lt=0.18u
TEXT 56 320 Left 2 !.op
